iidm/iidm-xml-converter/src/test/resources/Incremental-STATE.xiidm
<?xml version="1.0" encoding="UTF-8"?>
<iidm:network xmlns:iidm="http://www.itesla_project.eu/schema/iidm/1_0" id="sim1" caseDate="2013-01-15T18:45:00.000+01:00" forecastDistance="0" sourceFormat="test">
    <iidm:substation id="P1">
        <iidm:voltageLevel id="VLGEN">
            <iidm:busBreakerTopology>
                <iidm:bus id="NGEN" v="24.500000610351563" angle="2.3259763717651367"/>
            </iidm:busBreakerTopology>
            <iidm:generator id="GEN" p="-605.558349609375" q="-225.2825164794922"></iidm:generator>
        </iidm:voltageLevel>
        <iidm:twoWindingsTransformer id="NGEN_NHV1" p1="605.558349609375" q1="225.2825164794922" p2="-604.8909301757812" q2="-197.48046875"/>
    </iidm:substation>
    <iidm:substation id="P2">
        <iidm:voltageLevel id="VLLOAD">
            <iidm:busBreakerTopology>
                <iidm:bus id="NLOAD" v="147.57861328125" angle="-9.614486694335938"/>
            </iidm:busBreakerTopology>
            <iidm:load id="LOAD" p="600.0" q="200.0"/>
        </iidm:voltageLevel>
        <iidm:twoWindingsTransformer id="NHV2_NLOAD" p1="600.8677978515625" q1="274.3769836425781" p2="-600.0" q2="-200.0"></iidm:twoWindingsTransformer>
    </iidm:substation>
    <iidm:line id="NHV1_NHV2_1" p1="302.4440612792969" q1="98.74027252197266" p2="-300.43389892578125" q2="-137.18849182128906"/>
    <iidm:line id="NHV1_NHV2_2" p1="302.4440612792969" q1="98.74027252197266" p2="-300.43389892578125" q2="-137.18849182128906"/>
</iidm:network>